Output_case2/output_voltage_566.csv
# Output_case2\output_voltage_566.csv run at 2000-01-01 09:26:00 EST on 963 nodes
node_name,voltA_mag,voltA_angle,voltB_mag,voltB_angle,voltC_mag,voltC_angle
SourceBus,6668.395609,0.000000,6668.395609,4.188790,6668.395609,2.094395
Bus1,245.575352,-0.598862,242.102235,3.594915,246.931049,1.530501
Bus2,244.661251,-0.597795,241.081716,3.594815,246.711915,1.530525
Bus3,244.565436,-0.597683,240.974729,3.594804,246.688942,1.530527
Bus4,244.475676,-0.597578,240.874499,3.594794,246.667420,1.530530
Bus5,244.397420,-0.597486,240.787113,3.594786,246.648656,1.530532
Bus6,244.274140,-0.597341,240.649445,3.594772,246.619095,1.530535
Bus7,235.891820,-0.587128,231.275020,3.593805,244.606129,1.530755
Bus8,235.516986,-0.586653,230.855159,3.593760,244.515972,1.530765
Bus9,235.205045,-0.586257,230.505702,3.593723,244.440932,1.530773
Bus10,234.931323,-0.585909,230.199025,3.593689,244.375079,1.530780
Bus11,234.727093,-0.585648,229.970186,3.593665,244.325940,1.530786
Bus12,234.535385,-0.585403,229.755363,3.593641,244.279811,1.530791
Bus13,234.417510,-0.585252,229.623267,3.593627,244.251445,1.530794
Bus14,234.124076,-0.584876,229.294406,3.593591,244.180828,1.530802
Bus15,231.748250,-0.581794,226.630367,3.593297,243.608772,1.530865
Bus16,231.748250,-0.581794,226.630367,3.593297,243.608772,1.530865
Bus17,228.870177,-0.577970,223.399793,3.592931,242.915056,1.530942
Bus18,231.748250,-0.581794,226.630367,3.593297,243.608772,1.530865
Bus19,228.672273,-0.577703,223.177511,3.592905,242.867325,1.530948
Bus20,231.748250,-0.581794,226.630367,3.593297,243.608772,1.530865
Bus21,228.450069,-0.577403,222.927914,3.592876,242.813727,1.530954
Bus22,231.748250,-0.581794,226.630367,3.593297,243.608772,1.530865
Bus23,228.088320,-0.576913,222.521520,3.592829,242.726460,1.530963
Bus24,231.748250,-0.581794,226.630367,3.593297,243.608772,1.530865
Bus25,227.430352,-0.576019,221.782194,3.592743,242.567700,1.530981
Bus26,231.748250,-0.581794,226.630367,3.593297,243.608772,1.530865
Bus27,226.618709,-0.575138,221.784878,3.592691,242.576665,1.531013
Bus28,220.142843,-0.565372,212.416908,3.593562,240.260985,1.530025
Bus29,231.748250,-0.581794,226.630367,3.593297,243.608772,1.530865
Bus30,226.506965,-0.575017,221.785248,3.592684,242.577900,1.531018
Bus31,226.509788,-0.575020,221.785239,3.592684,242.577868,1.531018
Bus32,218.207176,-0.562418,209.923746,3.593792,239.646938,1.529767
Bus33,231.748250,-0.581794,226.630367,3.593297,243.608772,1.530865
Bus34,226.251076,-0.574738,221.786094,3.592667,242.580727,1.531028
Bus35,226.506099,-0.575016,221.785251,3.592684,242.577909,1.531018
Bus36,218.216765,-0.562381,209.070172,3.594795,239.649146,1.529715
Bus37,212.082269,-0.554288,203.209166,3.593603,237.720646,1.530515
Bus38,231.748250,-0.581794,226.630367,3.593297,243.608772,1.530865
Bus39,226.500796,-0.575010,221.785268,3.592683,242.577968,1.531018
Bus40,218.217100,-0.562379,209.040360,3.594830,239.649223,1.529714
Bus41,218.218277,-0.562375,208.935578,3.594953,239.649494,1.529707
Bus42,207.840640,-0.548365,198.549698,3.593464,236.384007,1.531041
Bus43,212.082269,-0.554288,203.209166,3.593603,237.720646,1.530515
Bus44,231.748250,-0.581794,226.630367,3.593297,243.608772,1.530865
Bus45,226.493994,-0.575003,221.785291,3.592683,242.578043,1.531018
Bus46,218.217251,-0.562379,209.026923,3.594846,239.649258,1.529713
Bus47,218.221916,-0.562361,208.611741,3.595336,239.650332,1.529688
Bus48,204.640436,-0.543726,195.028741,3.593355,235.374010,1.531443
Bus49,212.082269,-0.554288,203.209166,3.593603,237.720646,1.530515
Bus50,231.748250,-0.581794,226.630367,3.593297,243.608772,1.530865
Bus51,226.477430,-0.574985,221.785346,3.592682,242.578226,1.531019
Bus52,218.217411,-0.562378,209.012682,3.594862,239.649294,1.529712
Bus53,204.179401,-0.543046,194.521090,3.593339,235.228392,1.531501
Bus54,204.640436,-0.543726,195.028741,3.593355,235.374010,1.531443
Bus55,212.082269,-0.554288,203.209166,3.593603,237.720646,1.530515
Bus56,231.748250,-0.581794,226.630367,3.593297,243.608772,1.530865
Bus57,226.463248,-0.574969,221.785393,3.592681,242.578382,1.531020
Bus58,218.217563,-0.562378,208.999119,3.594878,239.649330,1.529711
Bus59,202.092234,-0.539923,192.221567,3.593265,234.568791,1.531766
Bus60,204.640436,-0.543726,195.028741,3.593355,235.374010,1.531443
Bus61,212.082269,-0.554288,203.209166,3.593603,237.720646,1.530515
Bus62,231.748250,-0.581794,226.630367,3.593297,243.608772,1.530865
Bus63,226.395265,-0.574895,221.785618,3.592676,242.579133,1.531022
Bus64,218.217654,-0.562377,208.990996,3.594888,239.649351,1.529711
Bus65,201.727853,-0.539347,191.746774,3.593385,234.415289,1.531740
Bus66,200.811499,-0.538360,192.226463,3.593171,234.582483,1.531821
Bus67,204.640436,-0.543726,195.028741,3.593355,235.374010,1.531443
Bus68,212.082269,-0.554288,203.209166,3.593603,237.720646,1.530515
Bus69,231.748250,-0.581794,226.630367,3.593297,243.608772,1.530865
Bus70,226.154979,-0.574633,221.786413,3.592661,242.581788,1.531032
Bus71,218.217833,-0.562377,208.975060,3.594907,239.649392,1.529710
Bus72,197.428008,-0.532385,186.137487,3.594848,232.601726,1.531435
Bus73,200.498567,-0.537975,192.227660,3.593148,234.585829,1.531834
Bus74,200.498567,-0.537975,192.227660,3.593148,234.585829,1.531834
Bus75,204.640436,-0.543726,195.028741,3.593355,235.374010,1.531443
Bus76,212.082269,-0.554288,203.209166,3.593603,237.720646,1.530515
Bus77,231.748250,-0.581794,226.630367,3.593297,243.608772,1.530865
Bus78,218.218741,-0.562373,208.894295,3.595002,239.649601,1.529705
Bus79,195.931508,-0.529886,184.182331,3.595378,231.969570,1.531327
Bus80,204.640436,-0.543726,195.028741,3.593355,235.374010,1.531443
Bus81,212.082269,-0.554288,203.209166,3.593603,237.720646,1.530515
Bus82,231.748250,-0.581794,226.630367,3.593297,243.608772,1.530865
Bus83,218.222160,-0.562360,208.589971,3.595362,239.650388,1.529687
Bus84,195.605087,-0.529336,183.755659,3.595496,231.831613,1.531304
Bus85,204.640436,-0.543726,195.028741,3.593355,235.374010,1.531443
Bus86,212.082269,-0.554288,203.209166,3.593603,237.720646,1.530515
Bus87,231.748250,-0.581794,226.630367,3.593297,243.608772,1.530865
Bus88,194.943339,-0.528214,182.890442,3.595735,231.551859,1.531256
Bus89,204.640436,-0.543726,195.028741,3.593355,235.374010,1.531443
Bus90,212.082269,-0.554288,203.209166,3.593603,237.720646,1.530515
Bus91,231.748250,-0.581794,226.630367,3.593297,243.608772,1.530865
Bus92,194.319506,-0.527149,182.074513,3.595963,231.288038,1.531211
Bus93,212.082269,-0.554288,203.209166,3.593603,237.720646,1.530515
Bus94,231.748250,-0.581794,226.630367,3.593297,243.608772,1.530865
Bus95,193.957013,-0.526527,181.600269,3.596097,231.134695,1.531184
Bus96,212.082269,-0.554288,203.209166,3.593603,237.720646,1.530515
Bus97,231.748250,-0.581794,226.630367,3.593297,243.608772,1.530865
Bus98,193.717655,-0.526115,181.287067,3.596185,231.033424,1.531167
Bus99,212.082269,-0.554288,203.209166,3.593603,237.720646,1.530515
Bus100,231.748250,-0.581794,226.630367,3.593297,243.608772,1.530865
Bus101,193.387222,-0.525544,180.854626,3.596308,230.893597,1.531143
Bus102,212.082269,-0.554288,203.209166,3.593603,237.720646,1.530515
Bus103,231.748250,-0.581794,226.630367,3.593297,243.608772,1.530865
Bus104,193.387985,-0.525542,180.844997,3.596305,230.889589,1.531124
Bus105,193.163885,-0.525205,180.617404,3.596304,230.821586,1.531187
Bus106,212.082269,-0.554288,203.209166,3.593603,237.720646,1.530515
Bus107,193.388909,-0.525540,180.833347,3.596300,230.884740,1.531101
Bus108,193.037253,-0.525012,180.482887,3.596301,230.780752,1.531212
Bus109,212.082269,-0.554288,203.209166,3.593603,237.720646,1.530515
Bus110,193.389980,-0.525537,180.819845,3.596295,230.879119,1.531074
Bus111,188.046546,-0.517197,175.175217,3.596199,229.169678,1.532206
Bus112,212.082269,-0.554288,203.209166,3.593603,237.720646,1.530515
Bus113,193.391613,-0.525532,180.799257,3.596288,230.870549,1.531034
Bus114,187.547238,-0.516391,174.643504,3.596188,229.008296,1.532307
Bus115,212.082269,-0.554288,203.209166,3.593603,237.720646,1.530515
Bus116,193.393712,-0.525527,180.772788,3.596278,230.859533,1.530981
Bus117,187.545087,-0.516405,174.621020,3.596180,228.991520,1.532260
Bus118,186.029554,-0.514677,173.200128,3.594926,228.669461,1.532451
Bus119,212.082269,-0.554288,203.209166,3.593603,237.720646,1.530515
Bus120,193.395219,-0.525523,180.753787,3.596271,230.851624,1.530944
Bus121,187.545087,-0.516405,174.621020,3.596180,228.991520,1.532260
Bus122,187.544040,-0.516412,174.610073,3.596177,228.983353,1.532237
Bus123,183.294023,-0.511514,170.597902,3.592596,228.058429,1.532711
Bus124,212.082269,-0.554288,203.209166,3.593603,237.720646,1.530515
Bus125,193.397349,-0.525517,180.726937,3.596261,230.840450,1.530891
Bus126,187.545087,-0.516405,174.621020,3.596180,228.991520,1.532260
Bus127,187.539121,-0.516444,174.558646,3.596159,228.944985,1.532130
Bus128,182.064466,-0.510061,169.427990,3.591525,227.783653,1.532829
Bus129,212.082269,-0.554288,203.209166,3.593603,237.720646,1.530515
Bus130,193.399653,-0.525511,180.697888,3.596250,230.828361,1.530833
Bus131,187.545087,-0.516405,174.621020,3.596180,228.991520,1.532260
Bus132,187.220291,-0.516026,174.559956,3.596133,228.948320,1.532144
Bus133,187.619685,-0.516492,174.399920,3.596328,228.808333,1.531698
Bus134,181.698714,-0.509625,169.079947,3.591203,227.701900,1.532864
Bus135,212.082269,-0.554288,203.209166,3.593603,237.720646,1.530515
Bus136,193.401826,-0.525505,180.670493,3.596240,230.816961,1.530779
Bus137,187.545087,-0.516405,174.621020,3.596180,228.991520,1.532260
Bus138,187.192835,-0.515990,174.560069,3.596131,228.948607,1.532146
Bus139,187.679621,-0.516528,174.281840,3.596454,228.706698,1.531375
Bus140,181.285894,-0.509130,168.687096,3.590838,227.609617,1.532904
Bus141,212.082269,-0.554288,203.209166,3.593603,237.720646,1.530515
Bus142,193.405398,-0.525496,180.625450,3.596223,230.798219,1.530690
Bus143,187.545087,-0.516405,174.621020,3.596180,228.991520,1.532260
Bus144,187.165895,-0.515954,174.560179,3.596129,228.948888,1.532147
Bus145,187.719759,-0.516552,174.202766,3.596539,228.638650,1.531160
Bus146,180.897685,-0.508663,168.317648,3.590494,227.522828,1.532941
Bus147,212.082269,-0.554288,203.209166,3.593603,237.720646,1.530515
Bus148,193.422385,-0.525451,180.411283,3.596144,230.709130,1.530267
Bus149,187.545087,-0.516405,174.621020,3.596180,228.991520,1.532260
Bus150,187.144143,-0.515926,174.560269,3.596127,228.949116,1.532148
Bus151,187.726277,-0.516725,174.225895,3.596675,228.561269,1.531130
Bus152,187.730552,-0.516508,173.272790,3.597845,228.641100,1.531101
Bus153,180.444769,-0.508116,167.886598,3.590090,227.421561,1.532985
Bus154,212.082269,-0.554288,203.209166,3.593603,237.720646,1.530515
Bus155,193.426086,-0.525441,180.364628,3.596126,230.689728,1.530175
Bus156,187.545087,-0.516405,174.621020,3.596180,228.991520,1.532260
Bus157,187.111495,-0.515883,174.560403,3.596124,228.949457,1.532149
Bus158,187.743591,-0.517183,174.287250,3.597035,228.356051,1.531053
Bus159,187.731209,-0.516505,173.216195,3.597925,228.641249,1.531097
Bus160,180.314455,-0.507958,167.762570,3.589974,227.392422,1.532997
Bus161,212.082269,-0.554288,203.209166,3.593603,237.720646,1.530515
Bus162,193.437879,-0.525393,179.343255,3.597521,230.692408,1.530111
Bus163,193.416375,-0.525507,180.260723,3.596096,230.609687,1.529957
Bus164,187.545087,-0.516405,174.621020,3.596180,228.991520,1.532260
Bus165,187.072135,-0.515831,174.560564,3.596121,228.949869,1.532151
Bus166,187.749614,-0.517343,174.308568,3.597161,228.284768,1.531026
Bus167,187.731809,-0.516503,173.164494,3.597998,228.641385,1.531094
Bus168,179.574205,-0.507055,167.057994,3.589308,227.226881,1.533069
Bus169,212.082269,-0.554288,203.209166,3.593603,237.720646,1.530515
Bus170,193.440107,-0.525384,179.150340,3.597786,230.692914,1.530099
Bus171,193.403484,-0.525595,180.122779,3.596054,230.503440,1.529668
Bus172,187.545087,-0.516405,174.621020,3.596180,228.991520,1.532260
Bus173,187.042399,-0.515792,174.560687,3.596119,228.950180,1.532152
Bus174,187.749614,-0.517343,174.308568,3.597161,228.284768,1.531026
Bus175,187.750980,-0.517387,174.314706,3.597194,227.707498,1.531648
Bus176,187.732058,-0.516501,173.143016,3.598028,228.641442,1.531093
Bus177,179.156173,-0.506542,166.660078,3.588930,227.133382,1.533109
Bus178,193.444704,-0.525365,178.752357,3.598335,230.693959,1.530074
Bus179,193.399087,-0.525555,180.091946,3.596004,230.510948,1.529629
Bus180,193.404299,-0.525620,180.126288,3.596073,230.173417,1.530019
Bus181,187.545087,-0.516405,174.621020,3.596180,228.991520,1.532260
Bus182,187.007990,-0.515747,174.560828,3.596116,228.950540,1.532154
Bus183,187.749614,-0.517343,174.308568,3.597161,228.284768,1.531026
Bus184,187.751127,-0.517392,174.315369,3.597198,227.645158,1.531715
Bus185,187.732595,-0.516499,173.096723,3.598094,228.641564,1.531090
Bus186,178.845887,-0.506160,166.364710,3.588648,227.063976,1.533139
Bus187,193.381787,-0.525397,179.970613,3.595807,230.540499,1.529474
Bus188,193.407676,-0.525722,180.140808,3.596150,228.807824,1.531481
Bus189,187.545087,-0.516405,174.621020,3.596180,228.991520,1.532260
Bus190,186.975637,-0.515704,174.560961,3.596113,228.950879,1.532155
Bus191,187.749614,-0.517343,174.308568,3.597161,228.284768,1.531026
Bus192,187.749614,-0.517343,174.308568,3.597161,228.284768,1.531026
Bus193,187.751270,-0.517397,174.316010,3.597201,227.584858,1.531780
Bus194,187.733964,-0.516494,172.978818,3.598261,228.641875,1.531082
Bus195,178.566947,-0.505815,166.099172,3.588393,227.001577,1.533166
Bus196,193.350911,-0.525115,179.753997,3.595454,230.593273,1.529199
Bus197,193.408005,-0.525732,180.142227,3.596157,228.674429,1.531625
Bus198,193.407866,-0.525728,180.141628,3.596154,228.730695,1.531564
Bus199,187.545087,-0.516405,174.621020,3.596180,228.991520,1.532260
Bus200,186.940828,-0.515658,174.561104,3.596111,228.951243,1.532157
...
SourceBus_1,6591.653157,-0.018256,6591.256214,4.177570,6631.571951,2.079709
LOAD1,226.251076,-0.574738,221.786094,3.592667,242.580727,1.531028
LOAD2,218.221916,-0.562361,208.611741,3.595336,239.650332,1.529688
LOAD3,226.154979,-0.574633,221.786413,3.592661,242.581788,1.531032
LOAD4,200.498567,-0.537975,192.227660,3.593148,234.585829,1.531834
LOAD5,200.498567,-0.537975,192.227660,3.593148,234.585829,1.531834
LOAD6,218.222160,-0.562360,208.589971,3.595362,239.650388,1.529687
LOAD7,193.444704,-0.525365,178.752357,3.598335,230.693959,1.530074
LOAD8,193.408840,-0.525757,180.145814,3.596176,228.337194,1.531989
LOAD9,191.855134,-0.523203,179.759981,3.595337,230.609002,1.529266
LOAD10,193.450858,-0.524688,176.684808,3.599294,230.619906,1.528649
LOAD11,193.450858,-0.524688,176.684808,3.599294,230.619906,1.528649
LOAD12,193.409064,-0.525764,180.146775,3.596181,228.246802,1.532087
LOAD13,187.750529,-0.516426,171.552212,3.600299,228.645639,1.530992
LOAD14,186.342204,-0.514867,174.563564,3.596062,228.957505,1.532184
LOAD15,187.748334,-0.516435,171.741395,3.600028,228.645138,1.531004
LOAD16,187.754153,-0.517491,174.328960,3.597272,226.367410,1.533102
LOAD17,187.753534,-0.517470,174.326188,3.597257,226.628064,1.532818
LOAD18,166.504319,-0.484455,155.766123,3.574299,225.697328,1.536436
LOAD19,174.337677,-0.500480,161.905710,3.584767,224.933422,1.534492
LOAD20,167.319539,-0.488272,158.171362,3.577348,226.234462,1.535172
LOAD21,174.566667,-0.500593,163.527607,3.585769,226.409159,1.533488
LOAD22,167.008985,-0.487815,158.172840,3.577321,226.237631,1.535186
LOAD23,164.797718,-0.479106,152.541938,3.574020,227.137287,1.535292
LOAD24,171.437995,-0.495938,157.788543,3.583841,223.226121,1.533578
LOAD25,148.411379,-0.438372,145.500986,3.545239,230.874958,1.540708
LOAD26,166.578583,-0.480623,146.217168,3.583955,223.267528,1.524209
LOAD27,170.393304,-0.493677,155.622441,3.584260,222.146318,1.532629
LOAD28,170.393905,-0.493702,155.625549,3.584279,221.850320,1.532957
LOAD29,147.424726,-0.430704,142.191053,3.545972,231.065330,1.537436
LOAD30,148.530261,-0.438569,145.500287,3.545250,230.873802,1.540702
LOAD31,147.454219,-0.430753,142.190877,3.545975,231.065047,1.537434
LOAD32,165.231888,-0.477819,145.503915,3.580832,222.012313,1.524703
LOAD33,151.892454,-0.432728,138.657610,3.554651,229.295235,1.531954
LOAD34,152.400127,-0.449458,147.911678,3.550454,230.098812,1.540381
LOAD35,152.216897,-0.431233,135.812812,3.559522,230.362907,1.529234
LOAD36,151.690189,-0.432231,135.366269,3.559379,230.627980,1.531457
LOAD37,151.691178,-0.432227,135.287958,3.559522,230.628142,1.531452
LOAD38,163.600576,-0.473608,141.892787,3.580944,222.943297,1.522850
LOAD39,162.386117,-0.470438,140.974014,3.578164,220.837993,1.523092
LOAD40,161.650891,-0.465757,136.909402,3.580235,222.580161,1.518847
LOAD41,160.069005,-0.451659,127.462211,3.588640,222.298475,1.510995
LOAD42,162.386215,-0.470444,140.974684,3.578169,220.774454,1.523163
LOAD43,158.808293,-0.448535,128.817788,3.583657,219.500195,1.512786
LOAD44,166.109020,-0.479342,144.858132,3.584529,223.172490,1.523746
LOAD45,160.067470,-0.451666,127.587525,3.588398,222.298127,1.511003
LOAD46,157.579548,-0.464397,142.938087,3.576933,222.966854,1.523278
LOAD47,158.808181,-0.448525,128.816672,3.583649,219.604551,1.512669
LOAD48,157.814007,-0.464763,142.936895,3.576956,222.964549,1.523267
LOAD49,157.349919,-0.464038,142.939257,3.576911,222.969108,1.523290
LOAD50,158.362844,-0.434281,118.866472,3.593223,222.955776,1.502300
LOAD51,157.270430,-0.454808,135.758078,3.575908,222.741821,1.517344
LOAD52,154.420696,-0.434179,125.585540,3.580439,222.691298,1.507674
LOAD53,158.362844,-0.434281,118.606181,3.593777,222.955776,1.502300
LOAD54,156.630441,-0.453805,135.761435,3.575843,222.747994,1.517376
LOAD55,154.356158,-0.433899,125.602225,3.580107,222.719850,1.507829
